<?xml version="1.0" encoding="UTF-8"?>

<configuration xmlns:xsi="http://www.w3.org/2001/XMLSchema-instance" xsi:noNamespaceSchemaLocation="http://sumo.dlr.de/xsd/sumoConfiguration.xsd">

    <input>
        <net-file value="target.net.xml"/>
        <route-files value="target.routes.xml"/>
    </input>

    <time>
        <begin value="25200"/>
        <step-length value="1"/>
        <end value="86400.0"/>
    </time>

</configuration>
