<?xml version="1.0" encoding="UTF-8"?>

<!-- generated on 2022-03-15 17:40:10 by Eclipse SUMO duarouter Version 1.11.0
<configuration xmlns:xsi="http://www.w3.org/2001/XMLSchema-instance" xsi:noNamespaceSchemaLocation="http://sumo.dlr.de/xsd/duarouterConfiguration.xsd">

    <input>
        <net-file value="target.net.xml"/>
        <route-files value="target.trips.xml"/>
    </input>

    <output>
        <output-file value="target.routes.xml&#45;&#45;repair"/>
    </output>

</configuration>
