<?xml version='1.0' encoding='utf-8'?>
<routes>

  <route edges=":cluster_570794_745096876_0" id="route_0"/>

  <vType id="taxi" vClass="taxi" personCapacity="8"> 
       <param key="has.taxi.device" value="true"/>
   </vType>

  <vehicle id="taxi1" depart="25000.0" type="taxi" line="taxi" route="route_0" />

  <person id="p0" depart="25200.0" color="green">
    <ride from="4522133" to=":1382977617_1" lines="taxi" />
  </person>
  <!-- <person id="p0" depart="25202.0" color="green">
    <ride from="-572901883#4" to="447437881#2" lines="taxi" />
  </person> -->

</routes>
<!-- 4522133 :1382977617_1 -->